# generated using pymatgen
data_Mg(SbO2)2
_symmetry_space_group_name_H-M   'P 1'
_cell_length_a   11.90928659
_cell_length_b   11.90928659
_cell_length_c   11.97451096
_cell_angle_alpha   90.00000000
_cell_angle_beta   90.00000000
_cell_angle_gamma   90.00000000
_symmetry_Int_Tables_number   1
_chemical_formula_structural   Mg(SbO2)2
_chemical_formula_sum   'Mg16 Sb32 O64'
_cell_volume   1698.35814699
_cell_formula_units_Z   16
loop_
 _symmetry_equiv_pos_site_id
 _symmetry_equiv_pos_as_xyz
  1  'x, y, z'
loop_
 _atom_site_type_symbol
 _atom_site_label
 _atom_site_symmetry_multiplicity
 _atom_site_fract_x
 _atom_site_fract_y
 _atom_site_fract_z
 _atom_site_occupancy
  Mg  Mg0  1  0.25000000  -0.25000000  0.12500000  1
  Mg  Mg1  1  0.25000000  -0.25000000  0.62500000  1
  Mg  Mg2  1  0.75000000  0.25000000  0.12500000  1
  Mg  Mg3  1  0.75000000  0.25000000  0.62500000  1
  Mg  Mg4  1  0.25000000  0.25000000  0.37500000  1
  Mg  Mg5  1  0.25000000  0.25000000  0.87500000  1
  Mg  Mg6  1  0.75000000  0.75000000  0.37500000  1
  Mg  Mg7  1  0.75000000  0.75000000  0.87500000  1
  Mg  Mg8  1  0.25000000  -0.25000000  0.37500000  1
  Mg  Mg9  1  0.25000000  -0.25000000  0.87500000  1
  Mg  Mg10  1  0.75000000  0.25000000  0.37500000  1
  Mg  Mg11  1  0.75000000  0.25000000  0.87500000  1
  Mg  Mg12  1  0.25000000  0.25000000  0.12500000  1
  Mg  Mg13  1  0.25000000  0.25000000  0.62500000  1
  Mg  Mg14  1  0.75000000  0.75000000  0.12500000  1
  Mg  Mg15  1  0.75000000  0.75000000  0.62500000  1
  Sb  Sb16  1  0.33131747  -0.00418077  0.00000000  1
  Sb  Sb17  1  0.33131747  -0.00418077  0.50000000  1
  Sb  Sb18  1  0.83131747  0.49581923  0.00000000  1
  Sb  Sb19  1  0.83131747  0.49581923  0.50000000  1
  Sb  Sb20  1  0.49581923  0.16868253  0.25000000  1
  Sb  Sb21  1  0.49581923  0.16868253  0.75000000  1
  Sb  Sb22  1  0.99581923  0.66868253  0.25000000  1
  Sb  Sb23  1  0.99581923  0.66868253  0.75000000  1
  Sb  Sb24  1  0.50418077  -0.16868253  0.25000000  1
  Sb  Sb25  1  0.50418077  -0.16868253  0.75000000  1
  Sb  Sb26  1  1.00418077  0.33131747  0.25000000  1
  Sb  Sb27  1  1.00418077  0.33131747  0.75000000  1
  Sb  Sb28  1  0.49581923  0.33131747  0.00000000  1
  Sb  Sb29  1  0.49581923  0.33131747  0.50000000  1
  Sb  Sb30  1  0.99581923  0.83131747  0.00000000  1
  Sb  Sb31  1  0.99581923  0.83131747  0.50000000  1
  Sb  Sb32  1  0.50418077  -0.33131747  0.00000000  1
  Sb  Sb33  1  0.50418077  -0.33131747  0.50000000  1
  Sb  Sb34  1  1.00418077  0.16868253  0.00000000  1
  Sb  Sb35  1  1.00418077  0.16868253  0.50000000  1
  Sb  Sb36  1  0.66868253  0.00418077  0.00000000  1
  Sb  Sb37  1  0.66868253  0.00418077  0.50000000  1
  Sb  Sb38  1  1.16868253  0.50418077  0.00000000  1
  Sb  Sb39  1  1.16868253  0.50418077  0.50000000  1
  Sb  Sb40  1  0.83131747  0.00418077  0.25000000  1
  Sb  Sb41  1  0.83131747  0.00418077  0.75000000  1
  Sb  Sb42  1  1.33131747  0.50418077  0.25000000  1
  Sb  Sb43  1  1.33131747  0.50418077  0.75000000  1
  Sb  Sb44  1  0.16868253  -0.00418077  0.25000000  1
  Sb  Sb45  1  0.16868253  -0.00418077  0.75000000  1
  Sb  Sb46  1  0.66868253  0.49581923  0.25000000  1
  Sb  Sb47  1  0.66868253  0.49581923  0.75000000  1
  O  O48  1  0.22874703  -0.13226664  0.00000000  1
  O  O49  1  0.22874703  -0.13226664  0.50000000  1
  O  O50  1  0.72874703  0.36773336  0.00000000  1
  O  O51  1  0.72874703  0.36773336  0.50000000  1
  O  O52  1  0.36773336  0.27125297  0.25000000  1
  O  O53  1  0.36773336  0.27125297  0.75000000  1
  O  O54  1  0.86773336  0.77125297  0.25000000  1
  O  O55  1  0.86773336  0.77125297  0.75000000  1
  O  O56  1  0.63226664  -0.27125297  0.25000000  1
  O  O57  1  0.63226664  -0.27125297  0.75000000  1
  O  O58  1  1.13226664  0.22874703  0.25000000  1
  O  O59  1  1.13226664  0.22874703  0.75000000  1
  O  O60  1  0.36773336  0.22874703  0.00000000  1
  O  O61  1  0.36773336  0.22874703  0.50000000  1
  O  O62  1  0.86773336  0.72874703  0.00000000  1
  O  O63  1  0.86773336  0.72874703  0.50000000  1
  O  O64  1  0.63226664  -0.22874703  0.00000000  1
  O  O65  1  0.63226664  -0.22874703  0.50000000  1
  O  O66  1  1.13226664  0.27125297  0.00000000  1
  O  O67  1  1.13226664  0.27125297  0.50000000  1
  O  O68  1  0.77125297  0.13226664  0.00000000  1
  O  O69  1  0.77125297  0.13226664  0.50000000  1
  O  O70  1  1.27125297  0.63226664  0.00000000  1
  O  O71  1  1.27125297  0.63226664  0.50000000  1
  O  O72  1  0.72874703  0.13226664  0.25000000  1
  O  O73  1  0.72874703  0.13226664  0.75000000  1
  O  O74  1  1.22874703  0.63226664  0.25000000  1
  O  O75  1  1.22874703  0.63226664  0.75000000  1
  O  O76  1  0.27125297  -0.13226664  0.25000000  1
  O  O77  1  0.27125297  -0.13226664  0.75000000  1
  O  O78  1  0.77125297  0.36773336  0.25000000  1
  O  O79  1  0.77125297  0.36773336  0.75000000  1
  O  O80  1  0.42577552  -0.25000000  0.12500000  1
  O  O81  1  0.42577552  -0.25000000  0.62500000  1
  O  O82  1  0.92577552  0.25000000  0.12500000  1
  O  O83  1  0.92577552  0.25000000  0.62500000  1
  O  O84  1  0.25000000  0.07422448  0.37500000  1
  O  O85  1  0.25000000  0.07422448  0.87500000  1
  O  O86  1  0.75000000  0.57422448  0.37500000  1
  O  O87  1  0.75000000  0.57422448  0.87500000  1
  O  O88  1  0.75000000  -0.07422448  0.37500000  1
  O  O89  1  0.75000000  -0.07422448  0.87500000  1
  O  O90  1  1.25000000  0.42577552  0.37500000  1
  O  O91  1  1.25000000  0.42577552  0.87500000  1
  O  O92  1  0.57422448  0.25000000  0.12500000  1
  O  O93  1  0.57422448  0.25000000  0.62500000  1
  O  O94  1  1.07422448  0.75000000  0.12500000  1
  O  O95  1  1.07422448  0.75000000  0.62500000  1
  O  O96  1  0.57422448  0.25000000  0.37500000  1
  O  O97  1  0.57422448  0.25000000  0.87500000  1
  O  O98  1  1.07422448  0.75000000  0.37500000  1
  O  O99  1  1.07422448  0.75000000  0.87500000  1
  O  O100  1  0.75000000  -0.07422448  0.12500000  1
  O  O101  1  0.75000000  -0.07422448  0.62500000  1
  O  O102  1  1.25000000  0.42577552  0.12500000  1
  O  O103  1  1.25000000  0.42577552  0.62500000  1
  O  O104  1  0.25000000  0.07422448  0.12500000  1
  O  O105  1  0.25000000  0.07422448  0.62500000  1
  O  O106  1  0.75000000  0.57422448  0.12500000  1
  O  O107  1  0.75000000  0.57422448  0.62500000  1
  O  O108  1  0.42577552  -0.25000000  0.37500000  1
  O  O109  1  0.42577552  -0.25000000  0.87500000  1
  O  O110  1  0.92577552  0.25000000  0.37500000  1
  O  O111  1  0.92577552  0.25000000  0.87500000  1
